powerflow/Codes/PF_Formulation/resultados_csv/15/3bus/ramos.csv
caso,script,branch_id,f_bus,t_bus,pf_pu,qf_pu,pt_pu,qt_pu,loss_p_pu,loss_q_pu
3bus.pwf,15,1,1,2,0.017865884465262008,-0.02434529356240926,-0.017710005679407795,0.024495143886931563,0.00015587878585421322,0.00014985032452230485
3bus.pwf,15,2,1,3,0.16503057994352943,0.01917565822090106,-0.16031211279744095,-0.01463967322963411,0.004718467146088479,0.00453598499126695
3bus.pwf,15,3,2,3,0.14761290103386907,0.042517644350852944,-0.14358696581609878,-0.03864740828515081,0.004025935217770282,0.0038702360657021373
